LTspice 24.0.9 for Windows
Circuit: * D:\Users\ProjectFiles\CircuitSim\LTspiceXVII\sim\DCP.asc
Start Time: Mon May 20 22:11:58 2024
solver = Normal
Maximum thread count: 8
tnom = 27
temp = 27
method = modified trap
Limiting rise time of source v2 to 0.005
Limiting fall time of source v2 to 0.005
Limiting rise time of source v3 to 0.01
Limiting fall time of source v3 to 0.01
Limiting rise time of source v6 to 0.05
Limiting fall time of source v6 to 0.05
WARNING: Less than two connections to node u1:flux.  This node is used by e:u1:flux.
WARNING: Less than two connections to node u1:charge.  This node is used by e:u1:charge.
WARNING: Less than two connections to node u2:flux.  This node is used by e:u2:flux.
WARNING: Less than two connections to node u2:charge.  This node is used by e:u2:charge.
Direct Newton iteration for .op point succeeded.
Total elapsed time: 1.919 seconds.

