LTspice 24.0.9 for Windows
Circuit: * D:\Users\ProjectFiles\CircuitSim\LTspiceXVII\sim\Draft1.asc
Start Time: Tue Apr 23 00:39:18 2024
solver = Normal
Maximum thread count: 8
tnom = 27
temp = 27
method = modified trap
WARNING: Less than two connections to node u2:flux.  This node is used by e:u2:flux.
WARNING: Less than two connections to node u2:charge.  This node is used by e:u2:charge.
Direct Newton iteration for .op point succeeded.
Total elapsed time: 19.850 seconds.

